
     RDKit          3D

  8  7  0  0  0  0  0  0  0  0999 V2000
    0.6931    0.0283    0.0120 C   0  0  0  0  0  0  0  0  0  0  0  0
   -0.7432   -0.0297    0.0335 N   0  0  0  0  0  0  0  0  0  0  0  0
    1.1148   -0.6991   -0.7271 H   0  0  0  0  0  0  0  0  0  0  0  0
    1.1479   -0.2213    0.9847 H   0  0  0  0  0  0  0  0  0  0  0  0
    1.0896    1.0192   -0.3236 H   0  0  0  0  0  0  0  0  0  0  0  0
   -1.0723    0.7591   -0.5853 H   0  0  0  0  0  0  0  0  0  0  0  0
   -1.1659    0.0961    0.9725 H   0  0  0  0  0  0  0  0  0  0  0  0
   -1.0639   -0.9526   -0.3668 H   0  0  0  0  0  0  0  0  0  0  0  0
  1  2  1  0
  1  3  1  0
  1  4  1  0
  1  5  1  0
  2  6  1  0
  2  7  1  0
  2  8  1  0
M  CHG  1   2   1
M  END
$$$$
