
     RDKit          3D

  9  8  0  0  0  0  0  0  0  0999 V2000
   -0.9772   -0.0684   -0.0131 C   0  0  0  0  0  0  0  0  0  0  0  0
    0.5083   -0.2697    0.1514 C   0  0  0  0  0  0  0  0  0  0  0  0
    1.0993    0.9964   -0.0110 O   0  0  0  0  0  0  0  0  0  0  0  0
   -1.2300    0.9355   -0.4346 H   0  0  0  0  0  0  0  0  0  0  0  0
   -1.4742   -0.1039    0.9736 H   0  0  0  0  0  0  0  0  0  0  0  0
   -1.4358   -0.8164   -0.6806 H   0  0  0  0  0  0  0  0  0  0  0  0
    0.7331   -0.6294    1.1885 H   0  0  0  0  0  0  0  0  0  0  0  0
    0.9338   -1.0212   -0.5253 H   0  0  0  0  0  0  0  0  0  0  0  0
    1.8427    0.9772   -0.6490 H   0  0  0  0  0  0  0  0  0  0  0  0
  1  2  1  0
  2  3  1  0
  1  4  1  0
  1  5  1  0
  1  6  1  0
  2  7  1  0
  2  8  1  0
  3  9  1  0
M  END
$$$$
