
     RDKit          3D

 21 21  0  0  0  0  0  0  0  0999 V2000
    3.4400    0.6755   -0.2827 C   0  0  0  0  0  0  0  0  0  0  0  0
    2.1227    0.3379    0.2879 C   0  0  0  0  0  0  0  0  0  0  0  0
    1.9208    0.6178    1.4970 O   0  0  0  0  0  0  0  0  0  0  0  0
    1.1852   -0.2604   -0.5173 O   0  0  0  0  0  0  0  0  0  0  0  0
   -0.0702   -0.6198   -0.1010 C   0  0  0  0  0  0  0  0  0  0  0  0
   -0.2420   -1.8900    0.4213 C   0  0  0  0  0  0  0  0  0  0  0  0
   -1.5115   -2.2307    0.8336 C   0  0  0  0  0  0  0  0  0  0  0  0
   -2.5881   -1.3453    0.7359 C   0  0  0  0  0  0  0  0  0  0  0  0
   -2.3721   -0.0783    0.2050 C   0  0  0  0  0  0  0  0  0  0  0  0
   -1.1082    0.2848   -0.2147 C   0  0  0  0  0  0  0  0  0  0  0  0
   -0.8442    1.6010   -0.7750 C   0  0  0  0  0  0  0  0  0  0  0  0
    0.2888    1.9239   -1.1501 O   0  0  0  0  0  0  0  0  0  0  0  0
   -1.8671    2.5340   -0.9029 O   0  0  0  0  0  0  0  0  0  0  0  0
    3.3629    1.2122   -1.2455 H   0  0  0  0  0  0  0  0  0  0  0  0
    4.1152    1.1721    0.4381 H   0  0  0  0  0  0  0  0  0  0  0  0
    3.9443   -0.3042   -0.5099 H   0  0  0  0  0  0  0  0  0  0  0  0
    0.5727   -2.5869    0.5055 H   0  0  0  0  0  0  0  0  0  0  0  0
   -1.6700   -3.2049    1.2402 H   0  0  0  0  0  0  0  0  0  0  0  0
   -3.5575   -1.6663    1.0740 H   0  0  0  0  0  0  0  0  0  0  0  0
   -3.2137    0.6269    0.1236 H   0  0  0  0  0  0  0  0  0  0  0  0
   -1.9080    3.2006   -1.6629 H   0  0  0  0  0  0  0  0  0  0  0  0
  1  2  1  0
  2  3  2  0
  2  4  1  0
  4  5  1  0
  5  6  2  0
  6  7  1  0
  7  8  2  0
  8  9  1  0
  9 10  2  0
 10 11  1  0
 11 12  2  0
 11 13  1  0
 10  5  1  0
  1 14  1  0
  1 15  1  0
  1 16  1  0
  6 17  1  0
  7 18  1  0
  8 19  1  0
  9 20  1  0
 13 21  1  0
M  END
$$$$
