
     RDKit          3D

  9  9  0  0  0  0  0  0  0  0999 V2000
   -0.8980    0.8844    0.0342 C   0  0  0  0  0  0  0  0  0  0  0  0
    0.3723    1.2970    0.3228 N   0  0  0  0  0  0  0  0  0  0  0  0
    1.2190    0.2535    0.2481 C   0  0  0  0  0  0  0  0  0  0  0  0
    0.4742   -0.8478   -0.0952 C   0  0  0  0  0  0  0  0  0  0  0  0
   -0.8110   -0.4339   -0.2188 N   0  0  0  0  0  0  0  0  0  0  0  0
   -1.7987    1.4853    0.0106 H   0  0  0  0  0  0  0  0  0  0  0  0
    2.2861    0.2745    0.4245 H   0  0  0  0  0  0  0  0  0  0  0  0
    0.7936   -1.8825   -0.2533 H   0  0  0  0  0  0  0  0  0  0  0  0
   -1.6375   -1.0305   -0.4730 H   0  0  0  0  0  0  0  0  0  0  0  0
  1  2  2  0
  2  3  1  0
  3  4  2  0
  4  5  1  0
  5  1  1  0
  1  6  1  0
  3  7  1  0
  4  8  1  0
  5  9  1  0
M  END
$$$$
