
     RDKit          3D

 13 12  0  0  0  0  0  0  0  0999 V2000
   -2.2229    0.0607    0.5311 C   0  0  0  0  0  0  0  0  0  0  0  0
   -1.3550    1.0701    0.1138 O   0  0  0  0  0  0  0  0  0  0  0  0
   -0.1101    0.3505   -0.7702 P   0  0  0  0  0  0  0  0  0  0  0  0
   -0.5298    0.3581   -2.2327 O   0  0  0  0  0  0  0  0  0  0  0  0
    0.0660   -1.2388   -0.2120 O   0  0  0  0  0  0  0  0  0  0  0  0
    1.3422    1.1569   -0.6392 O   0  0  0  0  0  0  0  0  0  0  0  0
    2.2890    0.5216    0.1320 C   0  0  0  0  0  0  0  0  0  0  0  0
   -3.2780    0.3305    0.4409 H   0  0  0  0  0  0  0  0  0  0  0  0
   -2.0357   -0.8729   -0.0504 H   0  0  0  0  0  0  0  0  0  0  0  0
   -1.9306   -0.1830    1.5838 H   0  0  0  0  0  0  0  0  0  0  0  0
    3.2420    0.3102   -0.4106 H   0  0  0  0  0  0  0  0  0  0  0  0
    2.5593    1.2383    0.9482 H   0  0  0  0  0  0  0  0  0  0  0  0
    1.9635   -0.4406    0.5653 H   0  0  0  0  0  0  0  0  0  0  0  0
  1  2  1  0
  2  3  1  0
  3  4  2  0
  3  5  1  0
  3  6  1  0
  6  7  1  0
  1  8  1  0
  1  9  1  0
  1 10  1  0
  7 11  1  0
  7 12  1  0
  7 13  1  0
M  CHG  1   5  -1
M  END
$$$$
