
     RDKit          3D

 12 12  0  0  0  0  0  0  0  0999 V2000
   -0.1642    1.3833    0.0109 C   0  0  0  0  0  0  0  0  0  0  0  0
   -1.2741    0.5311    0.0041 C   0  0  0  0  0  0  0  0  0  0  0  0
   -1.1078   -0.8395   -0.0067 C   0  0  0  0  0  0  0  0  0  0  0  0
    0.1745   -1.3513   -0.0106 C   0  0  0  0  0  0  0  0  0  0  0  0
    1.2847   -0.5322   -0.0041 C   0  0  0  0  0  0  0  0  0  0  0  0
    1.1036    0.8249    0.0066 C   0  0  0  0  0  0  0  0  0  0  0  0
   -0.3189    2.4325    0.0192 H   0  0  0  0  0  0  0  0  0  0  0  0
   -2.2490    0.9911    0.0077 H   0  0  0  0  0  0  0  0  0  0  0  0
   -1.9682   -1.4961   -0.0119 H   0  0  0  0  0  0  0  0  0  0  0  0
    0.2497   -2.4368   -0.0192 H   0  0  0  0  0  0  0  0  0  0  0  0
    2.2800   -0.9539   -0.0074 H   0  0  0  0  0  0  0  0  0  0  0  0
    1.9898    1.4470    0.0116 H   0  0  0  0  0  0  0  0  0  0  0  0
  1  2  1  0
  2  3  2  0
  3  4  1  0
  4  5  2  0
  5  6  1  0
  6  1  2  0
  1  7  1  0
  2  8  1  0
  3  9  1  0
  4 10  1  0
  5 11  1  0
  6 12  1  0
M  END
$$$$
