
     RDKit          3D

  7  6  0  0  0  0  0  0  0  0999 V2000
   -0.6381   -0.0217    0.0026 C   0  0  0  0  0  0  0  0  0  0  0  0
    0.8289   -0.0495   -0.0137 C   0  0  0  0  0  0  0  0  0  0  0  0
    1.4652   -1.1077   -0.0375 O   0  0  0  0  0  0  0  0  0  0  0  0
    1.5230    1.1459   -0.0020 O   0  0  0  0  0  0  0  0  0  0  0  0
   -1.0285    1.0111   -0.0101 H   0  0  0  0  0  0  0  0  0  0  0  0
   -1.0997   -0.5138   -0.8935 H   0  0  0  0  0  0  0  0  0  0  0  0
   -1.0508   -0.4644    0.9542 H   0  0  0  0  0  0  0  0  0  0  0  0
  1  2  1  0
  2  3  2  0
  2  4  1  0
  1  5  1  0
  1  6  1  0
  1  7  1  0
M  CHG  1   4  -1
M  END
$$$$
