
     RDKit          3D

 12 12  0  0  0  0  0  0  0  0999 V2000
    3.0212   -0.5460   -0.1645 Cl  0  0  0  0  0  0  0  0  0  0  0  0
    1.2892   -0.2073   -0.0695 C   0  0  0  0  0  0  0  0  0  0  0  0
    0.8307    1.0961   -0.0103 C   0  0  0  0  0  0  0  0  0  0  0  0
   -0.5499    1.3127    0.0639 C   0  0  0  0  0  0  0  0  0  0  0  0
   -1.4345    0.2384    0.0775 C   0  0  0  0  0  0  0  0  0  0  0  0
   -0.9161   -1.0386    0.0162 C   0  0  0  0  0  0  0  0  0  0  0  0
    0.4398   -1.3006   -0.0581 C   0  0  0  0  0  0  0  0  0  0  0  0
    1.5402    1.9123   -0.0224 H   0  0  0  0  0  0  0  0  0  0  0  0
   -0.9245    2.3255    0.1107 H   0  0  0  0  0  0  0  0  0  0  0  0
   -2.5087    0.3712    0.1343 H   0  0  0  0  0  0  0  0  0  0  0  0
   -1.6228   -1.8753    0.0276 H   0  0  0  0  0  0  0  0  0  0  0  0
    0.8353   -2.2885   -0.1054 H   0  0  0  0  0  0  0  0  0  0  0  0
  1  2  1  0
  2  3  2  0
  3  4  1  0
  4  5  2  0
  5  6  1  0
  6  7  2  0
  7  2  1  0
  3  8  1  0
  4  9  1  0
  5 10  1  0
  6 11  1  0
  7 12  1  0
M  END
$$$$
